Circuit: * C:\Users\USER\Downloads\UAS Elday\Task 1.asc

Warning: Multiple definitions of model "2scr375p" Type: BJT
Warning: Multiple definitions of model "bc857b" Type: BJT
Warning: Multiple definitions of model "bc847c" Type: BJT
Warning: Multiple definitions of model "bc847b" Type: BJT
Per .tran options, skipping operating point for transient analysis.
Heightened Def Con from 2e-005 to 2.00002e-005
Heightened Def Con from 3e-005 to 3.00002e-005
Heightened Def Con from 4e-005 +to 4e-005
Heightened Def Con from 4e-005 to 4.00002e-005
Heightened Def Con from 6e-005 to 6e-005
Heightened Def Con from 6e-005 to 6.00002e-005
Heightened Def Con from 0.00014 to 0.00014

Date: Mon Dec 22 11:45:33 2025
Total elapsed time: 38.784 seconds.

tnom = 27
temp = 27
method = modified trap
totiter = 20050492
traniter = 20050492
tranpoints = 10003768
accept = 10003117
rejected = 659
matrix size = 23
fillins = 4
solver = Normal
Matrix Compiler1:      87 opcodes  0.3/[0.1]/0.2
Matrix Compiler2: off  [0.1]/0.2/0.2

